*$
.SUBCKT Si7368DP 4 1 2
$CDNENCSTART
eee8c5c7a2bc4b01f045f303678664e7916da0bae22e8cb0bba041dd67c69ce448ea70148a9ac1670c8926c1ac5057c8ccfcd77bf87ca9dc5fc6b57ecff082dd
a86959356bb5698e0ed93681968e3593e6f3e3af99c5ea413772abe0e53cad6a58fea55edaf1be58dbada8cfcc20fff26eb23ec7721fa2a3cde43953e3a3f39f
a28973459d4812fa16e5b35384a6f0d9e6f3e3af99c5ea413772abe0e53cad6a69e187495031025f418db1f565da0ab67f7c621f23ff7deef318a8dd07737ee6
21bcdee903f85825f0d1cffc154e3cd1fe9605b5021cd8a576617f42cd5d956b35f73614607481af30de7d4f7a848bf60c0c9dd71e14f339c6faff153a6f6fc6
38af79a1dd87b2968d7b97bf4e0f2972f12b7e2cd5e9ade0999d591ca4a75129c2c47d40cbdcef6434c81d22d43417bb1026dc963c5155a1923436df0f073dba
c6740fe5fb20fa263a8c036125958ac7941756b8cd834d262189a796622d5df486643d4f520499a7f4aa5ea18f0f9f8f92590f779d13f5a1afdbccbb211ffd8f
1e7e75f62a07f7b19326e9f8676a4d9ce9526a6b0bc7f030bef26269c1bd9cb13a80fb65119c2a37706b807646b80371ba7f9b6e5bef5dc9b6c8a84e9dda753c
21e757cf5aa02e55b3b78f00e518c7204f92f29f41bcd0e7a7ad22b3af7a494d5976559d0b880c169189bd2ee6c23d7a16784491716740945387c65f549e07f2
e62b8c73676f785f535621bc609d90ffeb87848776396383b08ff333d639079f37ae7bd45c7e62fb706b807646b803711e26323d371b5fc3ecd385e9d91a8499
0b84f28fde64698d644126c9831a96bd35f73614607481af30de7d4f7a848bf60c0c9dd71e14f3390c9aeba6b6c7ff7dc59c2fe7bfee747efa9d7b64a452effd
0e9e043e7de958512c9d8bd842ed44b8bc27f931268b4061a1a393f0c92d65db7b7cf078ca69dccf706b807646b8037100d0dc87be4874b94d215d2b3fad57c9
706aca2adb4cc5de4c51e6a085891876706b807646b80371ce73bd8188d7330c88619ab4d3d9df46706b807646b80371e5b10c751b3981b1d4254a6894bc8489
09f392a0688e506cb3b78f00e518c7204f92f29f41bcd0e7a7ad22b3af7a494d5976559d0b880c169189bd2ee6c23d7a16784491716740945387c65f549e07f2
9facd94c1566fd2a93db4432a2d751d0706b807646b80371643f433ca2bd3150b6d2061e31866583941756b8cd834d262189a796622d5df4e15c11c7726d5fba
e03d6765f9692c324c51e6a085891876706b807646b80371ff0a244d8782d15437ae7bd45c7e62fb706b807646b80371706b807646b8037141c2c67879656cdf
00d0dc87be4874b9999d591ca4a75129c2c47d40cbdcef6434c81d22d43417bb1026dc963c5155a173d03d554680ef2586f6c61790dd0ef3e31c388208bf3981
68060a1582a7a49d4c51e6a085891876706b807646b8037145847538de35f26c37ae7bd45c7e62fb706b807646b80371a5f86428005c1d94f51cfdf409be72e2
6e3ce2cd42e990a3dd39b13a7f38b80b239bdbe658d21d0036ab65419d3ef764b313f805c51fd1eddbada8cfcc20fff26eb23ec7721fa2a3cde43953e3a3f39f
1e7e75f62a07f7b1c73dfa1547b4abfe30c77f78ae813db17cb71d758b21b5ba3a80fb65119c2a37706b807646b80371ba7f9b6e5bef5dc9b6c8a84e9dda753c
21e757cf5aa02e55b3b78f00e518c7204f92f29f41bcd0e7a7ad22b3af7a494d5976559d0b880c169189bd2ee6c23d7a16784491716740945387c65f549e07f2
996b741aec13a738b1b24eca502f36a2525f4881cdcee43c7c12e0ecdc0503f7326a41ca430e8c28706b807646b803715cec6adc134a2a824ee8c2d0796a9458
d7072740a938f0e737271f6a045506e0e3a40eb545e0e2bf5da53c4efc85f3b8c861fc28997f4eb4dbada8cfcc20fff26eb23ec7721fa2a3cde43953e3a3f39f
2e22f6288a7c0ef3914834d4bcabe727860edef926570fb149c7de5fc84018e1de7c5bb14ac1b1045efdf501a1f90eae418db1f565da0ab6c8ea741e18181d3b
07673128d177c6cb752e046512a2b14f1afe7806bf22d2ba4a482853d286736dbabd8a05aafd2fe0e68c3774d4356a2645a24c021183dd6cf2cd3eb29166e1a9
$CDNENCFINISH
.ENDS
*$
