**************************************
*      Model Generated by MODPEX     *
*Copyright(c) Symmetry Design Systems*
*         All Rights Reserved        *
*    UNPUBLISHED LICENSED SOFTWARE   *
*   Contains Proprietary Information *
*      Which is The Property of      *
*     SYMMETRY OR ITS LICENSORS      *
*Commercial Use or Resale Restricted *
*   by Symmetry License Agreement    *
**************************************
* Model generated on Nov 23, 11
* MODEL FORMAT: PSpice
.MODEL Dntsv30120ctg d
+IS=0.000344126 RS=0.0195574 N=1.966 EG=0.612843
+XTI=5 BV=1000 IBV=0.0001 CJO=1.16922e-09
+VJ=0.342533 M=0.499105 FC=0.5 TT=0
+KF=0 AF=1

